powerfactory/powerfactory-converter/src/test/resources/Transformer-Phase-GB-complete.xiidm
<?xml version="1.0" encoding="UTF-8"?>
<iidm:network xmlns:iidm="http://www.powsybl.org/schema/iidm/1_18" xmlns:slt="http://www.powsybl.org/schema/iidm/ext/slack_terminal/1_5" id="Transformer-Phase-GB - Study Case" caseDate="2021-01-01T10:00:00.000+02:00" forecastDistance="0" sourceFormat="POWER-FACTORY" minimumValidationLevel="STEADY_STATE_HYPOTHESIS">
    <iidm:substation id="S64">
        <iidm:voltageLevel id="VL64" nominalV="165.0" topologyKind="NODE_BREAKER">
            <iidm:nodeBreakerTopology>
                <iidm:busbarSection id="VL64_1 Bus 1-Slack" node="0"/>
                <iidm:switch id="VL64_Switch" kind="BREAKER" open="false" node1="0" node2="1"/>
                <iidm:switch id="VL64_Switch#0" kind="BREAKER" open="false" node1="0" node2="2"/>
                <iidm:switch id="VL64_Switch#1" kind="BREAKER" open="false" node1="0" node2="3"/>
            </iidm:nodeBreakerTopology>
            <iidm:generator id="sym_1_1" energySource="OTHER" minP="-10000.0" maxP="10000.0" targetP="61.130001068115234" localTargetV="174.89999055862427" localTargetQ="0.0" node="1">
                <iidm:minMaxReactiveLimits minQ="0.0" maxQ="0.0"/>
                <iidm:voltageRegulation mode="VOLTAGE" regulating="true"/>
            </iidm:generator>
        </iidm:voltageLevel>
    </iidm:substation>
    <iidm:substation id="S65">
        <iidm:voltageLevel id="VL65" nominalV="165.0" topologyKind="NODE_BREAKER">
            <iidm:nodeBreakerTopology>
                <iidm:busbarSection id="VL65_2 Bus 2" node="0"/>
                <iidm:busbarSection id="VL65_3 Bus 2-Load" node="3"/>
                <iidm:switch id="VL65_Switch" kind="BREAKER" open="false" node1="0" node2="1"/>
                <iidm:switch id="VL65_Switch#0" kind="BREAKER" open="false" node1="0" node2="2"/>
                <iidm:switch id="VL65_Switch#1" kind="BREAKER" open="false" node1="3" node2="4"/>
                <iidm:switch id="VL65_Switch#2" kind="BREAKER" open="false" node1="3" node2="5"/>
                <iidm:switch id="VL65_Switch#3" kind="BREAKER" open="false" node1="3" node2="6"/>
            </iidm:nodeBreakerTopology>
            <iidm:load id="lod_3_1" loadType="UNDEFINED" p0="50.0" q0="25.0" node="4"/>
        </iidm:voltageLevel>
        <iidm:twoWindingsTransformer id="trf_2_3_1" r="0.08272846419289497" x="8.356852297791427" g="3.1227095417161836E-4" b="-0.002902681037437016" ratedU1="165.0" ratedU2="165.0" ratedS="400.0" voltageLevelId1="VL65" node1="2" voltageLevelId2="VL65" node2="6">
            <iidm:phaseTapChanger regulating="true" tapPosition="1" targetDeadband="60.0" loadTapChangingCapabilities="true" regulationMode="ACTIVE_POWER_CONTROL" regulationValue="0.0">
                <iidm:terminalRef id="trf_2_3_1" side="ONE"/>
                <iidm:step rho="1.0" alpha="9.98"/>
                <iidm:step rho="1.0" alpha="5.002"/>
                <iidm:step rho="1.0" alpha="-9.98"/>
            </iidm:phaseTapChanger>
        </iidm:twoWindingsTransformer>
    </iidm:substation>
    <iidm:line id="lne_1_2_1" r="5.276205062866211" x="16.109033584594727" b1="6.355923080444336E-4" b2="6.355923080444336E-4" voltageLevelId1="VL64" node1="2" voltageLevelId2="VL65" node2="1"/>
    <iidm:line id="lne_1_3_1" r="5.276205062866211" x="16.109033584594727" b1="6.355923080444336E-4" b2="6.355923080444336E-4" voltageLevelId1="VL64" node1="3" voltageLevelId2="VL65" node2="5"/>
    <iidm:extension id="VL64">
        <slt:slackTerminal id="sym_1_1"/>
    </iidm:extension>
</iidm:network>
